psse/psse-converter/src/test/resources/IEEE_30_bus.xiidm
<?xml version="1.0" encoding="UTF-8"?>
<iidm:network xmlns:iidm="http://www.powsybl.org/schema/iidm/1_18" xmlns:slt="http://www.powsybl.org/schema/iidm/ext/slack_terminal/1_5" id="IEEE_30_bus" caseDate="2016-01-01T10:00:00.000+02:00" forecastDistance="0" sourceFormat="PSS/E" minimumValidationLevel="STEADY_STATE_HYPOTHESIS">
    <iidm:substation id="S1">
        <iidm:voltageLevel id="VL1" nominalV="132.0" topologyKind="BUS_BREAKER">
            <iidm:busBreakerTopology>
                <iidm:bus id="B1" name="Glen Lyn    " v="139.92000000000002" angle="98.4316"/>
            </iidm:busBreakerTopology>
            <iidm:generator id="B1-G1 " energySource="OTHER" minP="-10000.0" maxP="10000.0" targetP="260.948" localTargetV="139.92000000000002" localTargetQ="-16.787" bus="B1" connectableBus="B1">
                <iidm:minMaxReactiveLimits minQ="0.0" maxQ="0.0"/>
            </iidm:generator>
        </iidm:voltageLevel>
    </iidm:substation>
    <iidm:substation id="S2">
        <iidm:voltageLevel id="VL2" nominalV="132.0" topologyKind="BUS_BREAKER">
            <iidm:busBreakerTopology>
                <iidm:bus id="B2" name="Claytor     " v="137.69315999999998" angle="93.0798"/>
            </iidm:busBreakerTopology>
            <iidm:generator id="B2-G1 " energySource="OTHER" minP="-10000.0" maxP="10000.0" targetP="40.0" localTargetV="137.94" localTargetQ="50.0" bus="B2" connectableBus="B2">
                <iidm:minMaxReactiveLimits minQ="-40.0" maxQ="50.0"/>
                <iidm:voltageRegulation mode="VOLTAGE" regulating="true"/>
            </iidm:generator>
            <iidm:load id="B2-L1 " loadType="UNDEFINED" p0="21.7" q0="12.7" bus="B2" connectableBus="B2"/>
        </iidm:voltageLevel>
    </iidm:substation>
    <iidm:substation id="S3">
        <iidm:voltageLevel id="VL3" nominalV="132.0" topologyKind="BUS_BREAKER">
            <iidm:busBreakerTopology>
                <iidm:bus id="B3" name="Kumis       " v="134.73768" angle="90.8996"/>
            </iidm:busBreakerTopology>
            <iidm:load id="B3-L1 " loadType="UNDEFINED" p0="2.4" q0="1.2" bus="B3" connectableBus="B3"/>
        </iidm:voltageLevel>
    </iidm:substation>
    <iidm:substation id="S4-12">
        <iidm:voltageLevel id="VL4" nominalV="132.0" topologyKind="BUS_BREAKER">
            <iidm:busBreakerTopology>
                <iidm:bus id="B4" name="Hancock     " v="133.55232" angle="89.1475"/>
            </iidm:busBreakerTopology>
            <iidm:load id="B4-L1 " loadType="UNDEFINED" p0="7.6" q0="1.6" bus="B4" connectableBus="B4"/>
        </iidm:voltageLevel>
        <iidm:voltageLevel id="VL12" nominalV="33.0" topologyKind="BUS_BREAKER">
            <iidm:busBreakerTopology>
                <iidm:bus id="B12" name="Hancock     " v="34.88496" angle="83.4883"/>
            </iidm:busBreakerTopology>
            <iidm:load id="B12-L1 " loadType="UNDEFINED" p0="11.2" q0="7.5" bus="B12" connectableBus="B12"/>
        </iidm:voltageLevel>
        <iidm:twoWindingsTransformer id="T-4-12-1 " r="0.0" x="2.78784" ratedU1="132.0" ratedU2="33.0" voltageLevelId1="VL4" bus1="B4" connectableBus1="B4" voltageLevelId2="VL12" bus2="B12" connectableBus2="B12" selectedOperationalLimitsGroupIds1="DEFAULT" selectedOperationalLimitsGroupIds2="DEFAULT">
            <iidm:ratioTapChanger tapPosition="0" loadTapChangingCapabilities="false">
                <iidm:step g="-13.137599999999994" b="-13.137599999999994" rho="1.0729613733905579"/>
            </iidm:ratioTapChanger>
            <iidm:operationalLimitsGroup1 id="DEFAULT">
                <iidm:currentLimits detectionKind="HIGH" permanentLimit="284.3012689191339"/>
            </iidm:operationalLimitsGroup1>
            <iidm:operationalLimitsGroup2 id="DEFAULT">
                <iidm:currentLimits detectionKind="HIGH" permanentLimit="1137.2050756765357"/>
            </iidm:operationalLimitsGroup2>
        </iidm:twoWindingsTransformer>
    </iidm:substation>
    <iidm:substation id="S5">
        <iidm:voltageLevel id="VL5" nominalV="132.0" topologyKind="BUS_BREAKER">
            <iidm:busBreakerTopology>
                <iidm:bus id="B5" name="Fieldale    " v="133.32" angle="84.2658"/>
            </iidm:busBreakerTopology>
            <iidm:generator id="B5-G1 " energySource="OTHER" minP="-10000.0" maxP="10000.0" targetP="0.0" localTargetV="133.32" localTargetQ="36.85" bus="B5" connectableBus="B5">
                <iidm:minMaxReactiveLimits minQ="-40.0" maxQ="40.0"/>
                <iidm:voltageRegulation mode="VOLTAGE" regulating="true"/>
            </iidm:generator>
            <iidm:load id="B5-L1 " loadType="UNDEFINED" p0="94.2" q0="19.0" bus="B5" connectableBus="B5"/>
        </iidm:voltageLevel>
    </iidm:substation>
    <iidm:substation id="S6-9-10">
        <iidm:voltageLevel id="VL6" nominalV="132.0" topologyKind="BUS_BREAKER">
            <iidm:busBreakerTopology>
                <iidm:bus id="B6" name="Roanoke     " v="133.35432" angle="87.367"/>
            </iidm:busBreakerTopology>
        </iidm:voltageLevel>
        <iidm:voltageLevel id="VL9" nominalV="1.0" topologyKind="BUS_BREAKER">
            <iidm:busBreakerTopology>
                <iidm:bus id="B9" name="Roanoke     " v="1.05091" angle="84.3227"/>
            </iidm:busBreakerTopology>
        </iidm:voltageLevel>
        <iidm:voltageLevel id="VL10" nominalV="33.0" topologyKind="BUS_BREAKER">
            <iidm:busBreakerTopology>
                <iidm:bus id="B10" name="Roanoke     " v="34.48929" angle="82.732"/>
            </iidm:busBreakerTopology>
            <iidm:load id="B10-L1 " loadType="UNDEFINED" p0="5.8" q0="2.0" bus="B10" connectableBus="B10"/>
            <iidm:shuntCompensator id="B10-SH 1" sectionCount="1" bus="B10" connectableBus="B10">
                <iidm:shuntLinearModel bPerSection="0.017447199265381085" gPerSection="0.0" maximumSectionCount="1"/>
            </iidm:shuntCompensator>
        </iidm:voltageLevel>
        <iidm:twoWindingsTransformer id="T-6-9-1 " r="0.0" x="0.00208" ratedU1="132.0" ratedU2="1.0" voltageLevelId1="VL6" bus1="B6" connectableBus1="B6" voltageLevelId2="VL9" bus2="B9" connectableBus2="B9" selectedOperationalLimitsGroupIds1="DEFAULT" selectedOperationalLimitsGroupIds2="DEFAULT">
            <iidm:ratioTapChanger tapPosition="0" loadTapChangingCapabilities="false">
                <iidm:step g="-4.3515999999999995" b="-4.3515999999999995" rho="1.0224948875255624"/>
            </iidm:ratioTapChanger>
            <iidm:operationalLimitsGroup1 id="DEFAULT">
                <iidm:currentLimits detectionKind="HIGH" permanentLimit="284.3012689191339"/>
            </iidm:operationalLimitsGroup1>
            <iidm:operationalLimitsGroup2 id="DEFAULT">
                <iidm:currentLimits detectionKind="HIGH" permanentLimit="37527.76749732568"/>
            </iidm:operationalLimitsGroup2>
        </iidm:twoWindingsTransformer>
        <iidm:twoWindingsTransformer id="T-6-10-1 " r="0.0" x="6.05484" ratedU1="132.0" ratedU2="33.0" voltageLevelId1="VL6" bus1="B6" connectableBus1="B6" voltageLevelId2="VL10" bus2="B10" connectableBus2="B10" selectedOperationalLimitsGroupIds1="DEFAULT" selectedOperationalLimitsGroupIds2="DEFAULT">
            <iidm:ratioTapChanger tapPosition="0" loadTapChangingCapabilities="false">
                <iidm:step g="-6.1039000000000065" b="-6.1039000000000065" rho="1.0319917440660475"/>
            </iidm:ratioTapChanger>
            <iidm:operationalLimitsGroup1 id="DEFAULT">
                <iidm:currentLimits detectionKind="HIGH" permanentLimit="139.96370162172747"/>
            </iidm:operationalLimitsGroup1>
            <iidm:operationalLimitsGroup2 id="DEFAULT">
                <iidm:currentLimits detectionKind="HIGH" permanentLimit="559.8548064869099"/>
            </iidm:operationalLimitsGroup2>
        </iidm:twoWindingsTransformer>
    </iidm:substation>
    <iidm:substation id="S7">
        <iidm:voltageLevel id="VL7" nominalV="132.0" topologyKind="BUS_BREAKER">
            <iidm:busBreakerTopology>
                <iidm:bus id="B7" name="Blaine      " v="132.31416000000002" angle="85.5665"/>
            </iidm:busBreakerTopology>
            <iidm:load id="B7-L1 " loadType="UNDEFINED" p0="22.8" q0="10.9" bus="B7" connectableBus="B7"/>
        </iidm:voltageLevel>
    </iidm:substation>
    <iidm:substation id="S8">
        <iidm:voltageLevel id="VL8" nominalV="132.0" topologyKind="BUS_BREAKER">
            <iidm:busBreakerTopology>
                <iidm:bus id="B8" name="Reusens     " v="133.32" angle="86.6183"/>
            </iidm:busBreakerTopology>
            <iidm:generator id="B8-G1 " energySource="OTHER" minP="-10000.0" maxP="10000.0" targetP="0.0" localTargetV="133.32" localTargetQ="37.144" bus="B8" connectableBus="B8">
                <iidm:minMaxReactiveLimits minQ="-10.0" maxQ="40.0"/>
                <iidm:voltageRegulation mode="VOLTAGE" regulating="true"/>
            </iidm:generator>
            <iidm:load id="B8-L1 " loadType="UNDEFINED" p0="30.0" q0="30.0" bus="B8" connectableBus="B8"/>
        </iidm:voltageLevel>
    </iidm:substation>
    <iidm:substation id="S11">
        <iidm:voltageLevel id="VL11" nominalV="11.0" topologyKind="BUS_BREAKER">
            <iidm:busBreakerTopology>
                <iidm:bus id="B11" name="Roanoke     " v="11.902000000000001" angle="84.3227"/>
            </iidm:busBreakerTopology>
            <iidm:generator id="B11-G1 " energySource="OTHER" minP="-10000.0" maxP="10000.0" targetP="0.0" localTargetV="11.902000000000001" localTargetQ="16.172" bus="B11" connectableBus="B11">
                <iidm:minMaxReactiveLimits minQ="-6.0" maxQ="24.0"/>
                <iidm:voltageRegulation mode="VOLTAGE" regulating="true"/>
            </iidm:generator>
        </iidm:voltageLevel>
    </iidm:substation>
    <iidm:substation id="S13">
        <iidm:voltageLevel id="VL13" nominalV="11.0" topologyKind="BUS_BREAKER">
            <iidm:busBreakerTopology>
                <iidm:bus id="B13" name="Hancock     " v="11.780999999999999" angle="83.4883"/>
            </iidm:busBreakerTopology>
            <iidm:generator id="B13-G1 " energySource="OTHER" minP="-10000.0" maxP="10000.0" targetP="0.0" localTargetV="11.780999999999999" localTargetQ="10.619" bus="B13" connectableBus="B13">
                <iidm:minMaxReactiveLimits minQ="-6.0" maxQ="24.0"/>
                <iidm:voltageRegulation mode="VOLTAGE" regulating="true"/>
            </iidm:generator>
        </iidm:voltageLevel>
    </iidm:substation>
    <iidm:substation id="S14">
        <iidm:voltageLevel id="VL14" nominalV="33.0" topologyKind="BUS_BREAKER">
            <iidm:busBreakerTopology>
                <iidm:bus id="B14" name="Bus 14      " v="34.39524" angle="82.5962"/>
            </iidm:busBreakerTopology>
            <iidm:load id="B14-L1 " loadType="UNDEFINED" p0="6.2" q0="1.6" bus="B14" connectableBus="B14"/>
        </iidm:voltageLevel>
    </iidm:substation>
    <iidm:substation id="S15">
        <iidm:voltageLevel id="VL15" nominalV="33.0" topologyKind="BUS_BREAKER">
            <iidm:busBreakerTopology>
                <iidm:bus id="B15" name="Bus 15      " v="34.24344" angle="82.5042"/>
            </iidm:busBreakerTopology>
            <iidm:load id="B15-L1 " loadType="UNDEFINED" p0="8.2" q0="2.5" bus="B15" connectableBus="B15"/>
        </iidm:voltageLevel>
    </iidm:substation>
    <iidm:substation id="S16">
        <iidm:voltageLevel id="VL16" nominalV="33.0" topologyKind="BUS_BREAKER">
            <iidm:busBreakerTopology>
                <iidm:bus id="B16" name="Bus 16      " v="34.46487" angle="82.9053"/>
            </iidm:busBreakerTopology>
            <iidm:load id="B16-L1 " loadType="UNDEFINED" p0="3.5" q0="1.8" bus="B16" connectableBus="B16"/>
        </iidm:voltageLevel>
    </iidm:substation>
    <iidm:substation id="S17">
        <iidm:voltageLevel id="VL17" nominalV="33.0" topologyKind="BUS_BREAKER">
            <iidm:busBreakerTopology>
                <iidm:bus id="B17" name="Bus 17      " v="34.316700000000004" angle="82.5702"/>
            </iidm:busBreakerTopology>
            <iidm:load id="B17-L1 " loadType="UNDEFINED" p0="9.0" q0="5.8" bus="B17" connectableBus="B17"/>
        </iidm:voltageLevel>
    </iidm:substation>
    <iidm:substation id="S18">
        <iidm:voltageLevel id="VL18" nominalV="33.0" topologyKind="BUS_BREAKER">
            <iidm:busBreakerTopology>
                <iidm:bus id="B18" name="Bus 18      " v="33.92894999999999" angle="81.8899"/>
            </iidm:busBreakerTopology>
            <iidm:load id="B18-L1 " loadType="UNDEFINED" p0="3.2" q0="0.9" bus="B18" connectableBus="B18"/>
        </iidm:voltageLevel>
    </iidm:substation>
    <iidm:substation id="S19">
        <iidm:voltageLevel id="VL19" nominalV="33.0" topologyKind="BUS_BREAKER">
            <iidm:busBreakerTopology>
                <iidm:bus id="B19" name="Bus 19      " v="33.84645" angle="81.7162"/>
            </iidm:busBreakerTopology>
            <iidm:load id="B19-L1 " loadType="UNDEFINED" p0="9.5" q0="3.4" bus="B19" connectableBus="B19"/>
        </iidm:voltageLevel>
    </iidm:substation>
    <iidm:substation id="S20">
        <iidm:voltageLevel id="VL20" nominalV="33.0" topologyKind="BUS_BREAKER">
            <iidm:busBreakerTopology>
                <iidm:bus id="B20" name="Bus 20      " v="33.98142" angle="81.9128"/>
            </iidm:busBreakerTopology>
            <iidm:load id="B20-L1 " loadType="UNDEFINED" p0="2.2" q0="0.7" bus="B20" connectableBus="B20"/>
        </iidm:voltageLevel>
    </iidm:substation>
    <iidm:substation id="S21">
        <iidm:voltageLevel id="VL21" nominalV="33.0" topologyKind="BUS_BREAKER">
            <iidm:busBreakerTopology>
                <iidm:bus id="B21" name="Bus 21      " v="34.08009" angle="82.2893"/>
            </iidm:busBreakerTopology>
            <iidm:load id="B21-L1 " loadType="UNDEFINED" p0="17.5" q0="11.2" bus="B21" connectableBus="B21"/>
        </iidm:voltageLevel>
    </iidm:substation>
    <iidm:substation id="S22">
        <iidm:voltageLevel id="VL22" nominalV="33.0" topologyKind="BUS_BREAKER">
            <iidm:busBreakerTopology>
                <iidm:bus id="B22" name="Bus 22      " v="34.09758" angle="82.3035"/>
            </iidm:busBreakerTopology>
        </iidm:voltageLevel>
    </iidm:substation>
    <iidm:substation id="S23">
        <iidm:voltageLevel id="VL23" nominalV="33.0" topologyKind="BUS_BREAKER">
            <iidm:busBreakerTopology>
                <iidm:bus id="B23" name="Bus 23      " v="33.89694" angle="82.1135"/>
            </iidm:busBreakerTopology>
            <iidm:load id="B23-L1 " loadType="UNDEFINED" p0="3.2" q0="1.6" bus="B23" connectableBus="B23"/>
        </iidm:voltageLevel>
    </iidm:substation>
    <iidm:substation id="S24">
        <iidm:voltageLevel id="VL24" nominalV="33.0" topologyKind="BUS_BREAKER">
            <iidm:busBreakerTopology>
                <iidm:bus id="B24" name="Bus 24      " v="33.71214" angle="81.937"/>
            </iidm:busBreakerTopology>
            <iidm:load id="B24-L1 " loadType="UNDEFINED" p0="8.7" q0="6.7" bus="B24" connectableBus="B24"/>
            <iidm:shuntCompensator id="B24-SH 1" sectionCount="1" bus="B24" connectableBus="B24">
                <iidm:shuntLinearModel bPerSection="0.003948576675849403" gPerSection="0.0" maximumSectionCount="1"/>
            </iidm:shuntCompensator>
        </iidm:voltageLevel>
    </iidm:substation>
    <iidm:substation id="S25">
        <iidm:voltageLevel id="VL25" nominalV="33.0" topologyKind="BUS_BREAKER">
            <iidm:busBreakerTopology>
                <iidm:bus id="B25" name="Bus 25      " v="33.572219999999994" angle="82.3648"/>
            </iidm:busBreakerTopology>
        </iidm:voltageLevel>
    </iidm:substation>
    <iidm:substation id="S26">
        <iidm:voltageLevel id="VL26" nominalV="33.0" topologyKind="BUS_BREAKER">
            <iidm:busBreakerTopology>
                <iidm:bus id="B26" name="Bus 26      " v="32.98878" angle="81.9452"/>
            </iidm:busBreakerTopology>
            <iidm:load id="B26-L1 " loadType="UNDEFINED" p0="3.5" q0="2.3" bus="B26" connectableBus="B26"/>
        </iidm:voltageLevel>
    </iidm:substation>
    <iidm:substation id="S27-28">
        <iidm:voltageLevel id="VL27" nominalV="33.0" topologyKind="BUS_BREAKER">
            <iidm:busBreakerTopology>
                <iidm:bus id="B27" name="Cloverdl    " v="33.76725" angle="82.8892"/>
            </iidm:busBreakerTopology>
        </iidm:voltageLevel>
        <iidm:voltageLevel id="VL28" nominalV="132.0" topologyKind="BUS_BREAKER">
            <iidm:busBreakerTopology>
                <iidm:bus id="B28" name="Cloverdl    " v="132.90024" angle="86.7432"/>
            </iidm:busBreakerTopology>
        </iidm:voltageLevel>
        <iidm:twoWindingsTransformer id="T-28-27-1 " r="0.0" x="4.3124400000000005" ratedU1="132.0" ratedU2="33.0" voltageLevelId1="VL28" bus1="B28" connectableBus1="B28" voltageLevelId2="VL27" bus2="B27" connectableBus2="B27">
            <iidm:ratioTapChanger tapPosition="0" loadTapChangingCapabilities="false">
                <iidm:step g="-6.297600000000003" b="-6.297600000000003" rho="1.0330578512396695"/>
            </iidm:ratioTapChanger>
        </iidm:twoWindingsTransformer>
    </iidm:substation>
    <iidm:substation id="S29">
        <iidm:voltageLevel id="VL29" nominalV="33.0" topologyKind="BUS_BREAKER">
            <iidm:busBreakerTopology>
                <iidm:bus id="B29" name="Bus 29      " v="33.11253" angle="81.6593"/>
            </iidm:busBreakerTopology>
            <iidm:load id="B29-L1 " loadType="UNDEFINED" p0="2.4" q0="0.9" bus="B29" connectableBus="B29"/>
        </iidm:voltageLevel>
    </iidm:substation>
    <iidm:substation id="S30">
        <iidm:voltageLevel id="VL30" nominalV="33.0" topologyKind="BUS_BREAKER">
            <iidm:busBreakerTopology>
                <iidm:bus id="B30" name="Bus 30      " v="32.73402" angle="80.7765"/>
            </iidm:busBreakerTopology>
            <iidm:load id="B30-L1 " loadType="UNDEFINED" p0="10.6" q0="1.9" bus="B30" connectableBus="B30"/>
        </iidm:voltageLevel>
    </iidm:substation>
    <iidm:line id="L-1-2-1 " name="Glen Lyn_Claytor_1 " r="3.345408" x="10.0188" b1="1.5151515151515152E-4" b2="1.5151515151515152E-4" voltageLevelId1="VL1" bus1="B1" connectableBus1="B1" voltageLevelId2="VL2" bus2="B2" connectableBus2="B2" selectedOperationalLimitsGroupIds1="DEFAULT" selectedOperationalLimitsGroupIds2="DEFAULT">
        <iidm:operationalLimitsGroup1 id="DEFAULT">
            <iidm:currentLimits detectionKind="HIGH" permanentLimit="568.6025378382678"/>
        </iidm:operationalLimitsGroup1>
        <iidm:operationalLimitsGroup2 id="DEFAULT">
            <iidm:currentLimits detectionKind="HIGH" permanentLimit="568.6025378382678"/>
        </iidm:operationalLimitsGroup2>
    </iidm:line>
    <iidm:line id="L-1-3-1 " name="Glen Lyn_Kumis_1 " r="7.875647999999999" x="28.78444800000001" b1="1.1707988980716253E-4" b2="1.1707988980716253E-4" voltageLevelId1="VL1" bus1="B1" connectableBus1="B1" voltageLevelId2="VL3" bus2="B3" connectableBus2="B3" selectedOperationalLimitsGroupIds1="DEFAULT" selectedOperationalLimitsGroupIds2="DEFAULT">
        <iidm:operationalLimitsGroup1 id="DEFAULT">
            <iidm:currentLimits detectionKind="HIGH" permanentLimit="568.6025378382678"/>
        </iidm:operationalLimitsGroup1>
        <iidm:operationalLimitsGroup2 id="DEFAULT">
            <iidm:currentLimits detectionKind="HIGH" permanentLimit="568.6025378382678"/>
        </iidm:operationalLimitsGroup2>
    </iidm:line>
    <iidm:line id="L-2-4-1 " name="Claytor_Hancock_1 " r="9.93168" x="30.265488" b1="1.0560146923783287E-4" b2="1.0560146923783287E-4" voltageLevelId1="VL2" bus1="B2" connectableBus1="B2" voltageLevelId2="VL4" bus2="B4" connectableBus2="B4" selectedOperationalLimitsGroupIds1="DEFAULT" selectedOperationalLimitsGroupIds2="DEFAULT">
        <iidm:operationalLimitsGroup1 id="DEFAULT">
            <iidm:currentLimits detectionKind="HIGH" permanentLimit="284.3012689191339"/>
        </iidm:operationalLimitsGroup1>
        <iidm:operationalLimitsGroup2 id="DEFAULT">
            <iidm:currentLimits detectionKind="HIGH" permanentLimit="284.3012689191339"/>
        </iidm:operationalLimitsGroup2>
    </iidm:line>
    <iidm:line id="L-2-5-1 " name="Claytor_Fieldale_1 " r="8.224128" x="34.551792" b1="1.1994949494949494E-4" b2="1.1994949494949494E-4" voltageLevelId1="VL2" bus1="B2" connectableBus1="B2" voltageLevelId2="VL5" bus2="B5" connectableBus2="B5" selectedOperationalLimitsGroupIds1="DEFAULT" selectedOperationalLimitsGroupIds2="DEFAULT">
        <iidm:operationalLimitsGroup1 id="DEFAULT">
            <iidm:currentLimits detectionKind="HIGH" permanentLimit="568.6025378382678"/>
        </iidm:operationalLimitsGroup1>
        <iidm:operationalLimitsGroup2 id="DEFAULT">
            <iidm:currentLimits detectionKind="HIGH" permanentLimit="568.6025378382678"/>
        </iidm:operationalLimitsGroup2>
    </iidm:line>
    <iidm:line id="L-2-6-1 " name="Claytor_Roanoke_1 " r="10.123344" x="30.718512000000004" b1="1.0732323232323232E-4" b2="1.0732323232323232E-4" voltageLevelId1="VL2" bus1="B2" connectableBus1="B2" voltageLevelId2="VL6" bus2="B6" connectableBus2="B6" selectedOperationalLimitsGroupIds1="DEFAULT" selectedOperationalLimitsGroupIds2="DEFAULT">
        <iidm:operationalLimitsGroup1 id="DEFAULT">
            <iidm:currentLimits detectionKind="HIGH" permanentLimit="284.3012689191339"/>
        </iidm:operationalLimitsGroup1>
        <iidm:operationalLimitsGroup2 id="DEFAULT">
            <iidm:currentLimits detectionKind="HIGH" permanentLimit="284.3012689191339"/>
        </iidm:operationalLimitsGroup2>
    </iidm:line>
    <iidm:line id="L-3-4-1 " name="Kumis_Hancock_1 " r="2.2999680000000002" x="6.603696000000001" b1="2.4104683195592284E-5" b2="2.4104683195592284E-5" voltageLevelId1="VL3" bus1="B3" connectableBus1="B3" voltageLevelId2="VL4" bus2="B4" connectableBus2="B4" selectedOperationalLimitsGroupIds1="DEFAULT" selectedOperationalLimitsGroupIds2="DEFAULT">
        <iidm:operationalLimitsGroup1 id="DEFAULT">
            <iidm:currentLimits detectionKind="HIGH" permanentLimit="568.6025378382678"/>
        </iidm:operationalLimitsGroup1>
        <iidm:operationalLimitsGroup2 id="DEFAULT">
            <iidm:currentLimits detectionKind="HIGH" permanentLimit="568.6025378382678"/>
        </iidm:operationalLimitsGroup2>
    </iidm:line>
    <iidm:line id="L-4-6-1 " name="Hancock_Roanoke_1 " r="2.073456" x="7.213536" b1="2.582644628099173E-5" b2="2.582644628099173E-5" voltageLevelId1="VL4" bus1="B4" connectableBus1="B4" voltageLevelId2="VL6" bus2="B6" connectableBus2="B6" selectedOperationalLimitsGroupIds1="DEFAULT" selectedOperationalLimitsGroupIds2="DEFAULT">
        <iidm:operationalLimitsGroup1 id="DEFAULT">
            <iidm:currentLimits detectionKind="HIGH" permanentLimit="393.6479108111085"/>
        </iidm:operationalLimitsGroup1>
        <iidm:operationalLimitsGroup2 id="DEFAULT">
            <iidm:currentLimits detectionKind="HIGH" permanentLimit="393.6479108111085"/>
        </iidm:operationalLimitsGroup2>
    </iidm:line>
    <iidm:line id="L-5-7-1 " name="Fieldale_Blaine_1 " r="8.01504" x="20.211840000000002" b1="5.8539944903581265E-5" b2="5.8539944903581265E-5" voltageLevelId1="VL5" bus1="B5" connectableBus1="B5" voltageLevelId2="VL7" bus2="B7" connectableBus2="B7" selectedOperationalLimitsGroupIds1="DEFAULT" selectedOperationalLimitsGroupIds2="DEFAULT">
        <iidm:operationalLimitsGroup1 id="DEFAULT">
            <iidm:currentLimits detectionKind="HIGH" permanentLimit="306.17059729752884"/>
        </iidm:operationalLimitsGroup1>
        <iidm:operationalLimitsGroup2 id="DEFAULT">
            <iidm:currentLimits detectionKind="HIGH" permanentLimit="306.17059729752884"/>
        </iidm:operationalLimitsGroup2>
    </iidm:line>
    <iidm:line id="L-6-7-1 " name="Roanoke_Blaine_1 " r="4.652208" x="14.28768" b1="4.878328741965106E-5" b2="4.878328741965106E-5" voltageLevelId1="VL6" bus1="B6" connectableBus1="B6" voltageLevelId2="VL7" bus2="B7" connectableBus2="B7" selectedOperationalLimitsGroupIds1="DEFAULT" selectedOperationalLimitsGroupIds2="DEFAULT">
        <iidm:operationalLimitsGroup1 id="DEFAULT">
            <iidm:currentLimits detectionKind="HIGH" permanentLimit="568.6025378382678"/>
        </iidm:operationalLimitsGroup1>
        <iidm:operationalLimitsGroup2 id="DEFAULT">
            <iidm:currentLimits detectionKind="HIGH" permanentLimit="568.6025378382678"/>
        </iidm:operationalLimitsGroup2>
    </iidm:line>
    <iidm:line id="L-6-8-1 " name="Roanoke_Reusens_1 " r="2.0908800000000003" x="7.318080000000001" b1="2.582644628099173E-5" b2="2.582644628099173E-5" voltageLevelId1="VL6" bus1="B6" connectableBus1="B6" voltageLevelId2="VL8" bus2="B8" connectableBus2="B8" selectedOperationalLimitsGroupIds1="DEFAULT" selectedOperationalLimitsGroupIds2="DEFAULT">
        <iidm:operationalLimitsGroup1 id="DEFAULT">
            <iidm:currentLimits detectionKind="HIGH" permanentLimit="139.96370162172747"/>
        </iidm:operationalLimitsGroup1>
        <iidm:operationalLimitsGroup2 id="DEFAULT">
            <iidm:currentLimits detectionKind="HIGH" permanentLimit="139.96370162172747"/>
        </iidm:operationalLimitsGroup2>
    </iidm:line>
    <iidm:line id="L-6-28-1 " name="Roanoke_Cloverdl_1 " r="2.944656" x="10.436976" b1="3.7304866850321396E-5" b2="3.7304866850321396E-5" voltageLevelId1="VL6" bus1="B6" connectableBus1="B6" voltageLevelId2="VL28" bus2="B28" connectableBus2="B28"/>
    <iidm:line id="L-8-28-1 " name="Reusens_Cloverdl_1 " r="11.081664" x="34.848" b1="1.2281910009182735E-4" b2="1.2281910009182735E-4" voltageLevelId1="VL8" bus1="B8" connectableBus1="B8" voltageLevelId2="VL28" bus2="B28" connectableBus2="B28"/>
    <iidm:line id="L-9-10-1 " name="Roanoke_Roanoke_1 " r="0.0" x="0.0363" b1="-881.5426997245179" b2="26.71341514316721" voltageLevelId1="VL9" bus1="B9" connectableBus1="B9" voltageLevelId2="VL10" bus2="B10" connectableBus2="B10"/>
    <iidm:line id="L-9-11-1 " name="Roanoke_Roanoke_1 " r="0.0" x="0.022879999999999998" b1="-437.0629370629371" b2="39.73299427844883" voltageLevelId1="VL9" bus1="B9" connectableBus1="B9" voltageLevelId2="VL11" bus2="B11" connectableBus2="B11" selectedOperationalLimitsGroupIds1="DEFAULT" selectedOperationalLimitsGroupIds2="DEFAULT">
        <iidm:operationalLimitsGroup1 id="DEFAULT">
            <iidm:currentLimits detectionKind="HIGH" permanentLimit="37527.76749732568"/>
        </iidm:operationalLimitsGroup1>
        <iidm:operationalLimitsGroup2 id="DEFAULT">
            <iidm:currentLimits detectionKind="HIGH" permanentLimit="3411.615227029607"/>
        </iidm:operationalLimitsGroup2>
    </iidm:line>
    <iidm:line id="L-10-17-1 " name="Roanoke_Bus 17_1 " r="0.352836" x="0.9202049999999999" voltageLevelId1="VL10" bus1="B10" connectableBus1="B10" voltageLevelId2="VL17" bus2="B17" connectableBus2="B17"/>
    <iidm:line id="L-10-20-1 " name="Roanoke_Bus 20_1 " r="1.019304" x="2.27601" voltageLevelId1="VL10" bus1="B10" connectableBus1="B10" voltageLevelId2="VL20" bus2="B20" connectableBus2="B20" selectedOperationalLimitsGroupIds1="DEFAULT" selectedOperationalLimitsGroupIds2="DEFAULT">
        <iidm:operationalLimitsGroup1 id="DEFAULT">
            <iidm:currentLimits detectionKind="HIGH" permanentLimit="559.8548064869099"/>
        </iidm:operationalLimitsGroup1>
        <iidm:operationalLimitsGroup2 id="DEFAULT">
            <iidm:currentLimits detectionKind="HIGH" permanentLimit="559.8548064869099"/>
        </iidm:operationalLimitsGroup2>
    </iidm:line>
    <iidm:line id="L-10-21-1 " name="Roanoke_Bus 21_1 " r="0.378972" x="0.815661" voltageLevelId1="VL10" bus1="B10" connectableBus1="B10" voltageLevelId2="VL21" bus2="B21" connectableBus2="B21"/>
    <iidm:line id="L-10-22-1 " name="Roanoke_Bus 22_1 " r="0.7917030000000002" x="1.6324109999999998" voltageLevelId1="VL10" bus1="B10" connectableBus1="B10" voltageLevelId2="VL22" bus2="B22" connectableBus2="B22"/>
    <iidm:line id="L-12-13-1 " name="Hancock_Hancock_1 " r="0.0" x="0.5082" b1="1.3118194936376757" b2="-3.9354584809130264" voltageLevelId1="VL12" bus1="B12" connectableBus1="B12" voltageLevelId2="VL13" bus2="B13" connectableBus2="B13" selectedOperationalLimitsGroupIds1="DEFAULT" selectedOperationalLimitsGroupIds2="DEFAULT">
        <iidm:operationalLimitsGroup1 id="DEFAULT">
            <iidm:currentLimits detectionKind="HIGH" permanentLimit="1137.2050756765357"/>
        </iidm:operationalLimitsGroup1>
        <iidm:operationalLimitsGroup2 id="DEFAULT">
            <iidm:currentLimits detectionKind="HIGH" permanentLimit="3411.615227029607"/>
        </iidm:operationalLimitsGroup2>
    </iidm:line>
    <iidm:line id="L-12-14-1 " name="Hancock_Bus 14_1 " r="1.340559" x="2.7867510000000006" voltageLevelId1="VL12" bus1="B12" connectableBus1="B12" voltageLevelId2="VL14" bus2="B14" connectableBus2="B14"/>
    <iidm:line id="L-12-15-1 " name="Hancock_Bus 15_1 " r="0.720918" x="1.4200559999999998" voltageLevelId1="VL12" bus1="B12" connectableBus1="B12" voltageLevelId2="VL15" bus2="B15" connectableBus2="B15" selectedOperationalLimitsGroupIds1="DEFAULT" selectedOperationalLimitsGroupIds2="DEFAULT">
        <iidm:operationalLimitsGroup1 id="DEFAULT">
            <iidm:currentLimits detectionKind="HIGH" permanentLimit="559.8548064869099"/>
        </iidm:operationalLimitsGroup1>
        <iidm:operationalLimitsGroup2 id="DEFAULT">
            <iidm:currentLimits detectionKind="HIGH" permanentLimit="559.8548064869099"/>
        </iidm:operationalLimitsGroup2>
    </iidm:line>
    <iidm:line id="L-12-16-1 " name="Hancock_Bus 16_1 " r="1.029105" x="2.1638429999999995" voltageLevelId1="VL12" bus1="B12" connectableBus1="B12" voltageLevelId2="VL16" bus2="B16" connectableBus2="B16" selectedOperationalLimitsGroupIds1="DEFAULT" selectedOperationalLimitsGroupIds2="DEFAULT">
        <iidm:operationalLimitsGroup1 id="DEFAULT">
            <iidm:currentLimits detectionKind="HIGH" permanentLimit="279.92740324345493"/>
        </iidm:operationalLimitsGroup1>
        <iidm:operationalLimitsGroup2 id="DEFAULT">
            <iidm:currentLimits detectionKind="HIGH" permanentLimit="279.92740324345493"/>
        </iidm:operationalLimitsGroup2>
    </iidm:line>
    <iidm:line id="L-14-15-1 " name="Bus 14_Bus 15_1 " r="2.40669" x="2.174733" voltageLevelId1="VL14" bus1="B14" connectableBus1="B14" voltageLevelId2="VL15" bus2="B15" connectableBus2="B15" selectedOperationalLimitsGroupIds1="DEFAULT" selectedOperationalLimitsGroupIds2="DEFAULT">
        <iidm:operationalLimitsGroup1 id="DEFAULT">
            <iidm:currentLimits detectionKind="HIGH" permanentLimit="279.92740324345493"/>
        </iidm:operationalLimitsGroup1>
        <iidm:operationalLimitsGroup2 id="DEFAULT">
            <iidm:currentLimits detectionKind="HIGH" permanentLimit="279.92740324345493"/>
        </iidm:operationalLimitsGroup2>
    </iidm:line>
    <iidm:line id="L-15-18-1 " name="Bus 15_Bus 18_1 " r="1.168497" x="2.3794649999999997" voltageLevelId1="VL15" bus1="B15" connectableBus1="B15" voltageLevelId2="VL18" bus2="B18" connectableBus2="B18" selectedOperationalLimitsGroupIds1="DEFAULT" selectedOperationalLimitsGroupIds2="DEFAULT">
        <iidm:operationalLimitsGroup1 id="DEFAULT">
            <iidm:currentLimits detectionKind="HIGH" permanentLimit="279.92740324345493"/>
        </iidm:operationalLimitsGroup1>
        <iidm:operationalLimitsGroup2 id="DEFAULT">
            <iidm:currentLimits detectionKind="HIGH" permanentLimit="279.92740324345493"/>
        </iidm:operationalLimitsGroup2>
    </iidm:line>
    <iidm:line id="L-15-23-1 " name="Bus 15_Bus 23_1 " r="1.089" x="2.19978" voltageLevelId1="VL15" bus1="B15" connectableBus1="B15" voltageLevelId2="VL23" bus2="B23" connectableBus2="B23"/>
    <iidm:line id="L-16-17-1 " name="Bus 16_Bus 17_1 " r="0.570636" x="2.094147" voltageLevelId1="VL16" bus1="B16" connectableBus1="B16" voltageLevelId2="VL17" bus2="B17" connectableBus2="B17" selectedOperationalLimitsGroupIds1="DEFAULT" selectedOperationalLimitsGroupIds2="DEFAULT">
        <iidm:operationalLimitsGroup1 id="DEFAULT">
            <iidm:currentLimits detectionKind="HIGH" permanentLimit="279.92740324345493"/>
        </iidm:operationalLimitsGroup1>
        <iidm:operationalLimitsGroup2 id="DEFAULT">
            <iidm:currentLimits detectionKind="HIGH" permanentLimit="279.92740324345493"/>
        </iidm:operationalLimitsGroup2>
    </iidm:line>
    <iidm:line id="L-18-19-1 " name="Bus 18_Bus 19_1 " r="0.6958709999999999" x="1.4069880000000001" voltageLevelId1="VL18" bus1="B18" connectableBus1="B18" voltageLevelId2="VL19" bus2="B19" connectableBus2="B19" selectedOperationalLimitsGroupIds1="DEFAULT" selectedOperationalLimitsGroupIds2="DEFAULT">
        <iidm:operationalLimitsGroup1 id="DEFAULT">
            <iidm:currentLimits detectionKind="HIGH" permanentLimit="279.92740324345493"/>
        </iidm:operationalLimitsGroup1>
        <iidm:operationalLimitsGroup2 id="DEFAULT">
            <iidm:currentLimits detectionKind="HIGH" permanentLimit="279.92740324345493"/>
        </iidm:operationalLimitsGroup2>
    </iidm:line>
    <iidm:line id="L-19-20-1 " name="Bus 19_Bus 20_1 " r="0.37026000000000003" x="0.7405200000000001" voltageLevelId1="VL19" bus1="B19" connectableBus1="B19" voltageLevelId2="VL20" bus2="B20" connectableBus2="B20" selectedOperationalLimitsGroupIds1="DEFAULT" selectedOperationalLimitsGroupIds2="DEFAULT">
        <iidm:operationalLimitsGroup1 id="DEFAULT">
            <iidm:currentLimits detectionKind="HIGH" permanentLimit="279.92740324345493"/>
        </iidm:operationalLimitsGroup1>
        <iidm:operationalLimitsGroup2 id="DEFAULT">
            <iidm:currentLimits detectionKind="HIGH" permanentLimit="279.92740324345493"/>
        </iidm:operationalLimitsGroup2>
    </iidm:line>
    <iidm:line id="L-21-22-1 " name="Bus 21_Bus 22_1 " r="0.126324" x="0.257004" voltageLevelId1="VL21" bus1="B21" connectableBus1="B21" voltageLevelId2="VL22" bus2="B22" connectableBus2="B22"/>
    <iidm:line id="L-22-24-1 " name="Bus 22_Bus 24_1 " r="1.25235" x="1.94931" voltageLevelId1="VL22" bus1="B22" connectableBus1="B22" voltageLevelId2="VL24" bus2="B24" connectableBus2="B24"/>
    <iidm:line id="L-23-24-1 " name="Bus 23_Bus 24_1 " r="1.4374799999999999" x="2.9403" voltageLevelId1="VL23" bus1="B23" connectableBus1="B23" voltageLevelId2="VL24" bus2="B24" connectableBus2="B24"/>
    <iidm:line id="L-24-25-1 " name="Bus 24_Bus 25_1 " r="2.052765" x="3.584988" voltageLevelId1="VL24" bus1="B24" connectableBus1="B24" voltageLevelId2="VL25" bus2="B25" connectableBus2="B25"/>
    <iidm:line id="L-25-26-1 " name="Bus 25_Bus 26_1 " r="2.770416" x="4.1382" voltageLevelId1="VL25" bus1="B25" connectableBus1="B25" voltageLevelId2="VL26" bus2="B26" connectableBus2="B26"/>
    <iidm:line id="L-25-27-1 " name="Bus 25_Cloverdl_1 " r="1.190277" x="2.272743" voltageLevelId1="VL25" bus1="B25" connectableBus1="B25" voltageLevelId2="VL27" bus2="B27" connectableBus2="B27"/>
    <iidm:line id="L-27-29-1 " name="Cloverdl_Bus 29_1 " r="2.393622" x="4.522617" voltageLevelId1="VL27" bus1="B27" connectableBus1="B27" voltageLevelId2="VL29" bus2="B29" connectableBus2="B29"/>
    <iidm:line id="L-27-30-1 " name="Cloverdl_Bus 30_1 " r="3.4869779999999997" x="6.563402999999999" voltageLevelId1="VL27" bus1="B27" connectableBus1="B27" voltageLevelId2="VL30" bus2="B30" connectableBus2="B30"/>
    <iidm:line id="L-29-30-1 " name="Bus 29_Bus 30_1 " r="2.612511" x="4.936437" voltageLevelId1="VL29" bus1="B29" connectableBus1="B29" voltageLevelId2="VL30" bus2="B30" connectableBus2="B30"/>
    <iidm:area id="A1" name="1           " areaType="ControlArea" interchangeTarget="0.0">
        <iidm:voltageLevelRef id="VL1"/>
        <iidm:voltageLevelRef id="VL2"/>
        <iidm:voltageLevelRef id="VL3"/>
        <iidm:voltageLevelRef id="VL4"/>
        <iidm:voltageLevelRef id="VL5"/>
        <iidm:voltageLevelRef id="VL6"/>
        <iidm:voltageLevelRef id="VL7"/>
        <iidm:voltageLevelRef id="VL8"/>
        <iidm:voltageLevelRef id="VL9"/>
        <iidm:voltageLevelRef id="VL10"/>
        <iidm:voltageLevelRef id="VL11"/>
        <iidm:voltageLevelRef id="VL12"/>
        <iidm:voltageLevelRef id="VL13"/>
        <iidm:voltageLevelRef id="VL14"/>
        <iidm:voltageLevelRef id="VL15"/>
        <iidm:voltageLevelRef id="VL16"/>
        <iidm:voltageLevelRef id="VL17"/>
        <iidm:voltageLevelRef id="VL18"/>
        <iidm:voltageLevelRef id="VL19"/>
        <iidm:voltageLevelRef id="VL20"/>
        <iidm:voltageLevelRef id="VL21"/>
        <iidm:voltageLevelRef id="VL22"/>
        <iidm:voltageLevelRef id="VL23"/>
        <iidm:voltageLevelRef id="VL24"/>
        <iidm:voltageLevelRef id="VL25"/>
        <iidm:voltageLevelRef id="VL26"/>
        <iidm:voltageLevelRef id="VL27"/>
        <iidm:voltageLevelRef id="VL28"/>
        <iidm:voltageLevelRef id="VL29"/>
        <iidm:voltageLevelRef id="VL30"/>
    </iidm:area>
    <iidm:extension id="VL1">
        <slt:slackTerminal id="B1-G1 "/>
    </iidm:extension>
</iidm:network>
